<?xml version="1.0" encoding="utf-8"?>
<android.support.design.widget.CoordinatorLayout xmlns:android="http://schemas.android.com/apk/res/android"
                                                 xmlns:app="http://schemas.android.com/apk/res-auto"
                                                 android:layout_width="match_parent"
                                                 android:layout_height="match_parent"
    >

    <com.google.android.gms.maps.MapView
        android:id="@+id/map_view"
        android:layout_width="match_parent"
        android:layout_height="match_parent"
        app:layout_anchor="@+id/route_layout"
        />

    <android.support.design.widget.FloatingActionButton
        android:id="@+id/fab"
        android:layout_width="wrap_content"
        android:layout_height="wrap_content"
        android:layout_margin="@dimen/fab_margin"
        app:layout_anchor="@+id/route_layout"
        app:layout_anchorGravity="top|end"
        app:layout_behavior="@string/appbar_scrolling_view_behavior"
        app:srcCompat="@android:drawable/ic_dialog_email"
        />


    <!--TODO: implement custom behavior to control maxsize and parallax scroll the map-->
    <FrameLayout
        android:id="@+id/route_layout"
        android:layout_width="match_parent"
        android:layout_height="@dimen/max_bottom_sheet_scroll"
        android:background="@color/route_bottom_sheet_color"
        android:clickable="true"
        app:behavior_peekHeight="@dimen/view_transit_height"
        app:layout_behavior="@string/bottom_sheet_behavior"
        >


        <net.wandroid.transit.ui.RouteView
            android:id="@+id/route_view"
            android:layout_width="match_parent"
            android:layout_height="wrap_content"
            android:layout_gravity="top"/>
    </FrameLayout>

</android.support.design.widget.CoordinatorLayout>